16131445
  -OEChem-07242610552D

256265  0     1  0  0  0  0  0999 V2000
   12.3027    2.2308    0.0000 O   0  0  0  0  0  0  0  0  0  0  0  0
   16.4829    0.5212    0.0000 O   0  0  0  0  0  0  0  0  0  0  0  0
   17.5519   -2.9867    0.0000 O   0  0  0  0  0  0  0  0  0  0  0  0
   12.4000    3.5894    0.0000 O   0  0  0  0  0  0  0  0  0  0  0  0
   15.4929    0.6621    0.0000 O   0  0  0  0  0  0  0  0  0  0  0  0
   17.6199   -3.9844    0.0000 O   0  0  0  0  0  0  0  0  0  0  0  0
   11.6351    4.2335    0.0000 O   0  0  0  0  0  0  0  0  0  0  0  0
   18.7221   -7.4173    0.0000 O   0  0  0  0  0  0  0  0  0  0  0  0
    9.5157    7.1504    0.0000 O   0  0  0  0  0  0  0  0  0  0  0  0
   18.7901   -8.4150    0.0000 O   0  0  0  0  0  0  0  0  0  0  0  0
    6.5195    5.1447    0.0000 O   0  0  0  0  0  0  0  0  0  0  0  0
    4.4000    8.0615    0.0000 O   0  0  0  0  0  0  0  0  0  0  0  0
   18.3139   -1.4313    0.0000 N   0  0  0  0  0  0  0  0  0  0  0  0
   14.0338    2.2883    0.0000 N   0  0  0  0  0  0  0  0  0  0  0  0
   16.2389   -1.1936    0.0000 N   0  0  0  0  0  0  0  0  0  0  0  0
   13.8858    0.0161    0.0000 N   0  0  0  0  0  0  0  0  0  0  0  0
   13.5157    4.9143    0.0000 N   0  0  0  0  0  0  0  0  0  0  0  0
   19.3480   -3.8665    0.0000 N   0  0  0  0  0  0  0  0  0  0  0  0
   11.9288   -2.0058    0.0000 N   0  0  0  0  0  0  0  0  0  0  0  0
   11.0455    5.8622    0.0000 N   0  0  0  0  0  0  0  0  0  0  0  0
   22.1618   -3.8731    0.0000 N   0  0  0  0  0  0  0  0  0  0  0  0
   14.7704   -4.4146    0.0000 N   0  0  0  0  0  0  0  0  0  0  0  0
   19.4841   -5.8619    0.0000 N   0  0  0  0  0  0  0  0  0  0  0  0
   15.4750    6.9339    0.0000 N   0  0  0  0  0  0  0  0  0  0  0  0
   20.5182   -8.2972    0.0000 N   0  0  0  0  0  0  0  0  0  0  0  0
    8.4000    5.8255    0.0000 N   0  0  0  0  0  0  0  0  0  0  0  0
   17.0620   -8.5329    0.0000 N   0  0  0  0  0  0  0  0  0  0  0  0
    9.5792    2.5682    0.0000 N   0  0  0  0  0  0  0  0  0  0  0  0
   20.6542  -10.2925    0.0000 N   0  0  0  0  0  0  0  0  0  0  0  0
    5.9299    6.7733    0.0000 N   0  0  0  0  0  0  0  0  0  0  0  0
   16.3001  -10.0883    0.0000 N   0  0  0  0  0  0  0  0  0  0  0  0
    6.4559    9.7268    0.0000 N   0  0  0  0  0  0  0  0  0  0  0  0
   15.3340   -8.6507    0.0000 N   0  0  0  0  0  0  0  0  0  0  0  0
    7.8740    2.8720    0.0000 N   0  0  0  0  0  0  0  0  0  0  0  0
    8.9896    4.1969    0.0000 N   0  0  0  0  0  0  0  0  0  0  0  0
    3.2844    6.7366    0.0000 N   0  0  0  0  0  0  0  0  0  0  0  0
    2.5830    2.7986    0.0000 N   0  0  0  0  0  0  0  0  0  0  0  0
    5.8664   11.3554    0.0000 N   0  0  0  0  0  0  0  0  0  0  0  0
    7.5716   11.0517    0.0000 N   0  0  0  0  0  0  0  0  0  0  0  0
   17.8459   -0.5475    0.0000 C   0  0  1  0  0  0  0  0  0  0  0  0
   14.1052    3.2857    0.0000 C   0  0  1  0  0  0  0  0  0  0  0  0
   18.5418    0.1706    0.0000 C   0  0  0  0  0  0  0  0  0  0  0  0
   15.0760    3.5260    0.0000 C   0  0  0  0  0  0  0  0  0  0  0  0
   19.4399   -0.2693    0.0000 C   0  0  0  0  0  0  0  0  0  0  0  0
   19.2990   -1.2593    0.0000 C   0  0  0  0  0  0  0  0  0  0  0  0
   15.6044    2.6770    0.0000 C   0  0  0  0  0  0  0  0  0  0  0  0
   14.9603    1.9121    0.0000 C   0  0  0  0  0  0  0  0  0  0  0  0
   13.2180    0.7604    0.0000 C   0  0  2  0  0  0  0  0  0  0  0  0
   13.1848    1.7598    0.0000 C   0  0  0  0  0  0  0  0  0  0  0  0
   16.8559   -0.4066    0.0000 C   0  0  0  0  0  0  0  0  0  0  0  0
   18.3819   -2.4289    0.0000 C   0  0  0  0  0  0  0  0  0  0  0  0
   13.3403    3.9298    0.0000 C   0  0  0  0  0  0  0  0  0  0  0  0
   19.2799   -2.8689    0.0000 C   0  0  2  0  0  0  0  0  0  0  0  0
   15.2488   -1.0527    0.0000 C   0  0  2  0  0  0  0  0  0  0  0  0
   12.2395    0.5541    0.0000 C   0  0  0  0  0  0  0  0  0  0  0  0
   20.1099   -2.3111    0.0000 C   0  0  0  0  0  0  0  0  0  0  0  0
   14.8758   -0.1248    0.0000 C   0  0  0  0  0  0  0  0  0  0  0  0
   14.6318   -1.8396    0.0000 C   0  0  0  0  0  0  0  0  0  0  0  0
   12.7507    5.5584    0.0000 C   0  0  1  0  0  0  0  0  0  0  0  0
   11.9288   -0.3964    0.0000 C   0  0  0  0  0  0  0  0  0  0  0  0
   21.0080   -2.7510    0.0000 C   0  0  0  0  0  0  0  0  0  0  0  0
   14.4909   -2.8296    0.0000 C   0  0  0  0  0  0  0  0  0  0  0  0
   12.9261    6.5429    0.0000 C   0  0  0  0  0  0  0  0  0  0  0  0
   10.9826   -0.7011    0.0000 C   0  0  0  0  0  0  0  0  0  0  0  0
   18.5180   -4.4243    0.0000 C   0  0  0  0  0  0  0  0  0  0  0  0
   18.5860   -5.4220    0.0000 C   0  0  2  0  0  0  0  0  0  0  0  0
   11.8105    5.2180    0.0000 C   0  0  0  0  0  0  0  0  0  0  0  0
   21.8861   -2.2851    0.0000 C   0  0  0  0  0  0  0  0  0  0  0  0
   12.5124   -1.2011    0.0000 C   0  0  0  0  0  0  0  0  0  0  0  0
   13.6121   -3.2941    0.0000 C   0  0  0  0  0  0  0  0  0  0  0  0
   10.9826   -1.7011    0.0000 C   0  0  0  0  0  0  0  0  0  0  0  0
   13.8664    6.8833    0.0000 C   0  0  0  0  0  0  0  0  0  0  0  0
   21.1780   -3.7305    0.0000 C   0  0  0  0  0  0  0  0  0  0  0  0
   15.2054   -3.5208    0.0000 C   0  0  0  0  0  0  0  0  0  0  0  0
   17.7560   -5.9797    0.0000 C   0  0  0  0  0  0  0  0  0  0  0  0
   22.6030   -2.9822    0.0000 C   0  0  0  0  0  0  0  0  0  0  0  0
   13.7857   -4.2789    0.0000 C   0  0  0  0  0  0  0  0  0  0  0  0
   10.1166   -0.2011    0.0000 C   0  0  0  0  0  0  0  0  0  0  0  0
   10.1052    5.5218    0.0000 C   0  0  1  0  0  0  0  0  0  0  0  0
   14.1412    7.8387    0.0000 C   0  0  0  0  0  0  0  0  0  0  0  0
   17.8240   -6.9774    0.0000 C   0  0  0  0  0  0  0  0  0  0  0  0
   22.1314   -1.3156    0.0000 C   0  0  0  0  0  0  0  0  0  0  0  0
   14.6891    6.3253    0.0000 C   0  0  0  0  0  0  0  0  0  0  0  0
   10.1166   -2.2011    0.0000 C   0  0  0  0  0  0  0  0  0  0  0  0
   12.6723   -2.9521    0.0000 C   0  0  0  0  0  0  0  0  0  0  0  0
   15.1407    7.8701    0.0000 C   0  0  0  0  0  0  0  0  0  0  0  0
    9.9299    4.5373    0.0000 C   0  0  0  0  0  0  0  0  0  0  0  0
   20.4502   -7.2995    0.0000 C   0  0  2  0  0  0  0  0  0  0  0  0
   23.5652   -2.7099    0.0000 C   0  0  0  0  0  0  0  0  0  0  0  0
   19.5521   -6.8596    0.0000 C   0  0  0  0  0  0  0  0  0  0  0  0
    9.2505   -0.7011    0.0000 C   0  0  0  0  0  0  0  0  0  0  0  0
   13.0196   -4.9216    0.0000 C   0  0  0  0  0  0  0  0  0  0  0  0
    9.2505   -1.7011    0.0000 C   0  0  0  0  0  0  0  0  0  0  0  0
   21.2802   -6.7417    0.0000 C   0  0  0  0  0  0  0  0  0  0  0  0
   23.0936   -1.0433    0.0000 C   0  0  0  0  0  0  0  0  0  0  0  0
   16.9940   -7.5352    0.0000 C   0  0  0  0  0  0  0  0  0  0  0  0
    9.3403    6.1659    0.0000 C   0  0  0  0  0  0  0  0  0  0  0  0
   13.6142    8.6885    0.0000 C   0  0  0  0  0  0  0  0  0  0  0  0
   11.9063   -3.5948    0.0000 C   0  0  0  0  0  0  0  0  0  0  0  0
   23.8105   -1.7405    0.0000 C   0  0  0  0  0  0  0  0  0  0  0  0
   10.6948    3.8931    0.0000 C   0  0  0  0  0  0  0  0  0  0  0  0
   12.0800   -4.5797    0.0000 C   0  0  0  0  0  0  0  0  0  0  0  0
   22.1781   -7.1817    0.0000 C   0  0  0  0  0  0  0  0  0  0  0  0
   15.6132    8.7514    0.0000 C   0  0  0  0  0  0  0  0  0  0  0  0
    7.6351    6.4696    0.0000 C   0  0  1  0  0  0  0  0  0  0  0  0
   14.0867    9.5699    0.0000 C   0  0  0  0  0  0  0  0  0  0  0  0
   10.5195    2.9086    0.0000 C   0  0  0  0  0  0  0  0  0  0  0  0
   15.0863    9.6013    0.0000 C   0  0  0  0  0  0  0  0  0  0  0  0
   19.7562   -9.8526    0.0000 C   0  0  2  0  0  0  0  0  0  0  0  0
   19.6882   -8.8549    0.0000 C   0  0  0  0  0  0  0  0  0  0  0  0
   23.0081   -6.6239    0.0000 C   0  0  0  0  0  0  0  0  0  0  0  0
   22.2461   -8.1794    0.0000 C   0  0  0  0  0  0  0  0  0  0  0  0
   18.9262  -10.4104    0.0000 C   0  0  2  0  0  0  0  0  0  0  0  0
    7.8105    7.4541    0.0000 C   0  0  0  0  0  0  0  0  0  0  0  0
    6.6948    6.1292    0.0000 C   0  0  0  0  0  0  0  0  0  0  0  0
    7.0455    8.0982    0.0000 C   0  0  0  0  0  0  0  0  0  0  0  0
   18.9942  -11.4081    0.0000 C   0  0  0  0  0  0  0  0  0  0  0  0
   18.0281   -9.9705    0.0000 C   0  0  0  0  0  0  0  0  0  0  0  0
   16.2320   -9.0906    0.0000 C   0  0  0  0  0  0  0  0  0  0  0  0
    4.9896    6.4329    0.0000 C   0  0  1  0  0  0  0  0  0  0  0  0
    7.2209    9.0827    0.0000 C   0  0  0  0  0  0  0  0  0  0  0  0
   18.1642  -11.9658    0.0000 C   0  0  0  0  0  0  0  0  0  0  0  0
    4.8143    5.4484    0.0000 C   0  0  0  0  0  0  0  0  0  0  0  0
    8.8143    3.2124    0.0000 C   0  0  0  0  0  0  0  0  0  0  0  0
    3.8740    5.1080    0.0000 C   0  0  0  0  0  0  0  0  0  0  0  0
    4.2247    7.0770    0.0000 C   0  0  0  0  0  0  0  0  0  0  0  0
    3.6986    4.1235    0.0000 C   0  0  0  0  0  0  0  0  0  0  0  0
    2.7583    3.7831    0.0000 C   0  0  0  0  0  0  0  0  0  0  0  0
    6.6313   10.7113    0.0000 C   0  0  0  0  0  0  0  0  0  0  0  0
   17.4894   -1.0548    0.0000 H   0  0  0  0  0  0  0  0  0  0  0  0
   13.5341    3.0444    0.0000 H   0  0  0  0  0  0  0  0  0  0  0  0
   18.8713    0.6959    0.0000 H   0  0  0  0  0  0  0  0  0  0  0  0
   18.0539    0.5532    0.0000 H   0  0  0  0  0  0  0  0  0  0  0  0
   15.6337    3.7968    0.0000 H   0  0  0  0  0  0  0  0  0  0  0  0
   14.8649    4.1089    0.0000 H   0  0  0  0  0  0  0  0  0  0  0  0
   20.0412   -0.4203    0.0000 H   0  0  0  0  0  0  0  0  0  0  0  0
   19.6529    0.3130    0.0000 H   0  0  0  0  0  0  0  0  0  0  0  0
   19.3411   -1.8779    0.0000 H   0  0  0  0  0  0  0  0  0  0  0  0
   19.9186   -1.2820    0.0000 H   0  0  0  0  0  0  0  0  0  0  0  0
   16.0343    2.2303    0.0000 H   0  0  0  0  0  0  0  0  0  0  0  0
   16.0936    3.0579    0.0000 H   0  0  0  0  0  0  0  0  0  0  0  0
   14.6683    1.3651    0.0000 H   0  0  0  0  0  0  0  0  0  0  0  0
   15.4737    1.5645    0.0000 H   0  0  0  0  0  0  0  0  0  0  0  0
   13.7932    0.9916    0.0000 H   0  0  0  0  0  0  0  0  0  0  0  0
   18.7653   -3.2147    0.0000 H   0  0  0  0  0  0  0  0  0  0  0  0
   15.4801   -1.6279    0.0000 H   0  0  0  0  0  0  0  0  0  0  0  0
   12.2189    1.1738    0.0000 H   0  0  0  0  0  0  0  0  0  0  0  0
   11.6256    0.6415    0.0000 H   0  0  0  0  0  0  0  0  0  0  0  0
   16.4701   -1.7688    0.0000 H   0  0  0  0  0  0  0  0  0  0  0  0
   13.6932   -0.5733    0.0000 H   0  0  0  0  0  0  0  0  0  0  0  0
   20.4752   -1.8101    0.0000 H   0  0  0  0  0  0  0  0  0  0  0  0
   19.6800   -1.8644    0.0000 H   0  0  0  0  0  0  0  0  0  0  0  0
   14.3042   -1.3133    0.0000 H   0  0  0  0  0  0  0  0  0  0  0  0
   15.2021   -2.0828    0.0000 H   0  0  0  0  0  0  0  0  0  0  0  0
   14.0986    5.1254    0.0000 H   0  0  0  0  0  0  0  0  0  0  0  0
   13.3337    5.7695    0.0000 H   0  0  0  0  0  0  0  0  0  0  0  0
   19.9047   -4.1393    0.0000 H   0  0  0  0  0  0  0  0  0  0  0  0
   12.8195    7.1537    0.0000 H   0  0  0  0  0  0  0  0  0  0  0  0
   12.3061    6.5440    0.0000 H   0  0  0  0  0  0  0  0  0  0  0  0
   18.6282   -6.0405    0.0000 H   0  0  0  0  0  0  0  0  0  0  0  0
   13.1324   -1.2011    0.0000 H   0  0  0  0  0  0  0  0  0  0  0  0
   20.7458   -4.1749    0.0000 H   0  0  0  0  0  0  0  0  0  0  0  0
   15.8160   -3.4131    0.0000 H   0  0  0  0  0  0  0  0  0  0  0  0
   17.5048   -5.4129    0.0000 H   0  0  0  0  0  0  0  0  0  0  0  0
   17.1542   -6.1287    0.0000 H   0  0  0  0  0  0  0  0  0  0  0  0
   12.1214   -2.5952    0.0000 H   0  0  0  0  0  0  0  0  0  0  0  0
   11.1542    6.4726    0.0000 H   0  0  0  0  0  0  0  0  0  0  0  0
   22.4501   -4.4220    0.0000 H   0  0  0  0  0  0  0  0  0  0  0  0
   10.1166    0.4189    0.0000 H   0  0  0  0  0  0  0  0  0  0  0  0
   10.5795    5.1224    0.0000 H   0  0  0  0  0  0  0  0  0  0  0  0
   15.0624   -4.9616    0.0000 H   0  0  0  0  0  0  0  0  0  0  0  0
   19.9987   -5.5161    0.0000 H   0  0  0  0  0  0  0  0  0  0  0  0
   18.0752   -7.5443    0.0000 H   0  0  0  0  0  0  0  0  0  0  0  0
   18.4259   -6.8285    0.0000 H   0  0  0  0  0  0  0  0  0  0  0  0
   21.6869   -0.8834    0.0000 H   0  0  0  0  0  0  0  0  0  0  0  0
   14.7085    5.7056    0.0000 H   0  0  0  0  0  0  0  0  0  0  0  0
   10.1166   -2.8211    0.0000 H   0  0  0  0  0  0  0  0  0  0  0  0
   12.5647   -2.3415    0.0000 H   0  0  0  0  0  0  0  0  0  0  0  0
    9.3477    4.7503    0.0000 H   0  0  0  0  0  0  0  0  0  0  0  0
    9.6190    4.0009    0.0000 H   0  0  0  0  0  0  0  0  0  0  0  0
   21.0069   -7.5722    0.0000 H   0  0  0  0  0  0  0  0  0  0  0  0
   24.0097   -3.1422    0.0000 H   0  0  0  0  0  0  0  0  0  0  0  0
    8.7136   -0.3911    0.0000 H   0  0  0  0  0  0  0  0  0  0  0  0
   13.1273   -5.5322    0.0000 H   0  0  0  0  0  0  0  0  0  0  0  0
   16.0701    6.7600    0.0000 H   0  0  0  0  0  0  0  0  0  0  0  0
    8.7136   -2.0111    0.0000 H   0  0  0  0  0  0  0  0  0  0  0  0
   21.6455   -6.2408    0.0000 H   0  0  0  0  0  0  0  0  0  0  0  0
   20.8503   -6.2950    0.0000 H   0  0  0  0  0  0  0  0  0  0  0  0
   23.2456   -0.4423    0.0000 H   0  0  0  0  0  0  0  0  0  0  0  0
   16.7428   -6.9683    0.0000 H   0  0  0  0  0  0  0  0  0  0  0  0
   16.3922   -7.6841    0.0000 H   0  0  0  0  0  0  0  0  0  0  0  0
   12.9945    8.6691    0.0000 H   0  0  0  0  0  0  0  0  0  0  0  0
   11.3237   -3.3828    0.0000 H   0  0  0  0  0  0  0  0  0  0  0  0
   24.4071   -1.5716    0.0000 H   0  0  0  0  0  0  0  0  0  0  0  0
   11.2771    3.6801    0.0000 H   0  0  0  0  0  0  0  0  0  0  0  0
   11.0057    4.4295    0.0000 H   0  0  0  0  0  0  0  0  0  0  0  0
   11.6050   -4.9782    0.0000 H   0  0  0  0  0  0  0  0  0  0  0  0
   21.6635   -7.5275    0.0000 H   0  0  0  0  0  0  0  0  0  0  0  0
   16.2329    8.7709    0.0000 H   0  0  0  0  0  0  0  0  0  0  0  0
   21.0750   -8.5699    0.0000 H   0  0  0  0  0  0  0  0  0  0  0  0
    8.2913    5.2151    0.0000 H   0  0  0  0  0  0  0  0  0  0  0  0
    7.5264    5.8592    0.0000 H   0  0  0  0  0  0  0  0  0  0  0  0
   13.7600   10.0968    0.0000 H   0  0  0  0  0  0  0  0  0  0  0  0
   10.6261    2.2979    0.0000 H   0  0  0  0  0  0  0  0  0  0  0  0
   11.1395    2.9076    0.0000 H   0  0  0  0  0  0  0  0  0  0  0  0
   15.3792   10.1477    0.0000 H   0  0  0  0  0  0  0  0  0  0  0  0
   19.7984  -10.4712    0.0000 H   0  0  0  0  0  0  0  0  0  0  0  0
   17.6188   -8.8056    0.0000 H   0  0  0  0  0  0  0  0  0  0  0  0
   23.3539   -7.1385    0.0000 H   0  0  0  0  0  0  0  0  0  0  0  0
   23.5227   -6.2781    0.0000 H   0  0  0  0  0  0  0  0  0  0  0  0
   22.6623   -6.1093    0.0000 H   0  0  0  0  0  0  0  0  0  0  0  0
   21.6276   -8.2215    0.0000 H   0  0  0  0  0  0  0  0  0  0  0  0
   22.2883   -8.7979    0.0000 H   0  0  0  0  0  0  0  0  0  0  0  0
   22.8647   -8.1372    0.0000 H   0  0  0  0  0  0  0  0  0  0  0  0
   18.8840   -9.7918    0.0000 H   0  0  0  0  0  0  0  0  0  0  0  0
    8.3927    7.2410    0.0000 H   0  0  0  0  0  0  0  0  0  0  0  0
    8.1214    7.9905    0.0000 H   0  0  0  0  0  0  0  0  0  0  0  0
    6.4633    8.3113    0.0000 H   0  0  0  0  0  0  0  0  0  0  0  0
    6.7346    7.5618    0.0000 H   0  0  0  0  0  0  0  0  0  0  0  0
   19.2454  -11.9749    0.0000 H   0  0  0  0  0  0  0  0  0  0  0  0
   19.5961  -11.2591    0.0000 H   0  0  0  0  0  0  0  0  0  0  0  0
    9.4705    1.9579    0.0000 H   0  0  0  0  0  0  0  0  0  0  0  0
   18.3009   -9.4137    0.0000 H   0  0  0  0  0  0  0  0  0  0  0  0
   17.4713   -9.6977    0.0000 H   0  0  0  0  0  0  0  0  0  0  0  0
   17.7554  -10.5273    0.0000 H   0  0  0  0  0  0  0  0  0  0  0  0
   20.6964  -10.9111    0.0000 H   0  0  0  0  0  0  0  0  0  0  0  0
   21.1688   -9.9467    0.0000 H   0  0  0  0  0  0  0  0  0  0  0  0
    6.0386    7.3837    0.0000 H   0  0  0  0  0  0  0  0  0  0  0  0
    5.4639    6.0336    0.0000 H   0  0  0  0  0  0  0  0  0  0  0  0
    7.8031    8.8697    0.0000 H   0  0  0  0  0  0  0  0  0  0  0  0
    7.5318    9.6191    0.0000 H   0  0  0  0  0  0  0  0  0  0  0  0
   17.8184  -11.4512    0.0000 H   0  0  0  0  0  0  0  0  0  0  0  0
   17.6496  -12.3116    0.0000 H   0  0  0  0  0  0  0  0  0  0  0  0
   18.5100  -12.4804    0.0000 H   0  0  0  0  0  0  0  0  0  0  0  0
    4.9209    4.8376    0.0000 H   0  0  0  0  0  0  0  0  0  0  0  0
    5.4342    5.4473    0.0000 H   0  0  0  0  0  0  0  0  0  0  0  0
    3.7674    5.7188    0.0000 H   0  0  0  0  0  0  0  0  0  0  0  0
    3.2540    5.1091    0.0000 H   0  0  0  0  0  0  0  0  0  0  0  0
   15.7855  -10.4341    0.0000 H   0  0  0  0  0  0  0  0  0  0  0  0
   16.8569  -10.3611    0.0000 H   0  0  0  0  0  0  0  0  0  0  0  0
    5.8730    9.5158    0.0000 H   0  0  0  0  0  0  0  0  0  0  0  0
   14.8194   -8.9965    0.0000 H   0  0  0  0  0  0  0  0  0  0  0  0
    3.8052    3.5127    0.0000 H   0  0  0  0  0  0  0  0  0  0  0  0
    4.3186    4.1224    0.0000 H   0  0  0  0  0  0  0  0  0  0  0  0
    7.3997    3.2713    0.0000 H   0  0  0  0  0  0  0  0  0  0  0  0
    7.7653    2.2616    0.0000 H   0  0  0  0  0  0  0  0  0  0  0  0
    8.5154    4.5962    0.0000 H   0  0  0  0  0  0  0  0  0  0  0  0
    2.6517    4.3939    0.0000 H   0  0  0  0  0  0  0  0  0  0  0  0
    2.1383    3.7842    0.0000 H   0  0  0  0  0  0  0  0  0  0  0  0
    2.8101    7.1360    0.0000 H   0  0  0  0  0  0  0  0  0  0  0  0
    3.1757    6.1262    0.0000 H   0  0  0  0  0  0  0  0  0  0  0  0
    2.0000    2.5876    0.0000 H   0  0  0  0  0  0  0  0  0  0  0  0
    3.0572    2.3993    0.0000 H   0  0  0  0  0  0  0  0  0  0  0  0
    5.9751   11.9658    0.0000 H   0  0  0  0  0  0  0  0  0  0  0  0
    5.2834   11.1444    0.0000 H   0  0  0  0  0  0  0  0  0  0  0  0
    7.6803   11.6621    0.0000 H   0  0  0  0  0  0  0  0  0  0  0  0
  1 49  2  0  0  0  0
  2 50  2  0  0  0  0
  3 51  2  0  0  0  0
  4 52  2  0  0  0  0
  5 57  2  0  0  0  0
  6 65  2  0  0  0  0
  7 67  2  0  0  0  0
  8 90  2  0  0  0  0
  9 97  2  0  0  0  0
 10110  2  0  0  0  0
 11115  2  0  0  0  0
 12126  2  0  0  0  0
 13 40  1  0  0  0  0
 13 45  1  0  0  0  0
 13 51  1  0  0  0  0
 14 41  1  0  0  0  0
 14 47  1  0  0  0  0
 14 49  1  0  0  0  0
 15 50  1  0  0  0  0
 54 15  1  1  0  0  0
 15149  1  0  0  0  0
 48 16  1  1  0  0  0
 16 57  1  0  0  0  0
 16150  1  0  0  0  0
 17 52  1  0  0  0  0
 59 17  1  6  0  0  0
 17155  1  0  0  0  0
 53 18  1  6  0  0  0
 18 65  1  0  0  0  0
 18157  1  0  0  0  0
 19 69  1  0  0  0  0
 19 71  1  0  0  0  0
 19166  1  0  0  0  0
 20 67  1  0  0  0  0
 79 20  1  1  0  0  0
 20167  1  0  0  0  0
 21 73  1  0  0  0  0
 21 76  1  0  0  0  0
 21168  1  0  0  0  0
 22 74  1  0  0  0  0
 22 77  1  0  0  0  0
 22171  1  0  0  0  0
 66 23  1  1  0  0  0
 23 90  1  0  0  0  0
 23172  1  0  0  0  0
 24 83  1  0  0  0  0
 24 86  1  0  0  0  0
 24185  1  0  0  0  0
 88 25  1  6  0  0  0
 25110  1  0  0  0  0
 25200  1  0  0  0  0
 26 97  1  0  0  0  0
105 26  1  6  0  0  0
 26201  1  0  0  0  0
 27 96  1  0  0  0  0
 27119  1  0  0  0  0
 27208  1  0  0  0  0
 28107  1  0  0  0  0
 28124  1  0  0  0  0
 28222  1  0  0  0  0
109 29  1  1  0  0  0
 29226  1  0  0  0  0
 29227  1  0  0  0  0
 30115  1  0  0  0  0
120 30  1  1  0  0  0
 30228  1  0  0  0  0
 31119  1  0  0  0  0
 31239  1  0  0  0  0
 31240  1  0  0  0  0
 32121  1  0  0  0  0
 32129  1  0  0  0  0
 32241  1  0  0  0  0
 33119  2  0  0  0  0
 33242  1  0  0  0  0
 34124  1  0  0  0  0
 34245  1  0  0  0  0
 34246  1  0  0  0  0
 35124  2  0  0  0  0
 35247  1  0  0  0  0
 36126  1  0  0  0  0
 36250  1  0  0  0  0
 36251  1  0  0  0  0
 37128  1  0  0  0  0
 37252  1  0  0  0  0
 37253  1  0  0  0  0
 38129  1  0  0  0  0
 38254  1  0  0  0  0
 38255  1  0  0  0  0
 39129  2  0  0  0  0
 39256  1  0  0  0  0
 40 42  1  0  0  0  0
 40 50  1  6  0  0  0
 40130  1  0  0  0  0
 41 43  1  0  0  0  0
 41 52  1  6  0  0  0
 41131  1  0  0  0  0
 42 44  1  0  0  0  0
 42132  1  0  0  0  0
 42133  1  0  0  0  0
 43 46  1  0  0  0  0
 43134  1  0  0  0  0
 43135  1  0  0  0  0
 44 45  1  0  0  0  0
 44136  1  0  0  0  0
 44137  1  0  0  0  0
 45138  1  0  0  0  0
 45139  1  0  0  0  0
 46 47  1  0  0  0  0
 46140  1  0  0  0  0
 46141  1  0  0  0  0
 47142  1  0  0  0  0
 47143  1  0  0  0  0
 48 49  1  0  0  0  0
 48 55  1  0  0  0  0
 48144  1  0  0  0  0
 51 53  1  0  0  0  0
 53 56  1  0  0  0  0
 53145  1  0  0  0  0
 54 57  1  0  0  0  0
 54 58  1  0  0  0  0
 54146  1  0  0  0  0
 55 60  1  0  0  0  0
 55147  1  0  0  0  0
 55148  1  0  0  0  0
 56 61  1  0  0  0  0
 56151  1  0  0  0  0
 56152  1  0  0  0  0
 58 62  1  0  0  0  0
 58153  1  0  0  0  0
 58154  1  0  0  0  0
 59 63  1  0  0  0  0
 59 67  1  0  0  0  0
 59156  1  0  0  0  0
 60 64  1  0  0  0  0
 60 69  2  0  0  0  0
 61 68  1  0  0  0  0
 61 73  2  0  0  0  0
 62 70  1  0  0  0  0
 62 74  2  0  0  0  0
 63 72  1  0  0  0  0
 63158  1  0  0  0  0
 63159  1  0  0  0  0
 64 71  1  0  0  0  0
 64 78  2  0  0  0  0
 65 66  1  0  0  0  0
 66 75  1  0  0  0  0
 66160  1  0  0  0  0
 68 76  1  0  0  0  0
 68 82  2  0  0  0  0
 69161  1  0  0  0  0
 70 77  1  0  0  0  0
 70 85  2  0  0  0  0
 71 84  2  0  0  0  0
 72 80  1  0  0  0  0
 72 83  2  0  0  0  0
 73162  1  0  0  0  0
 74163  1  0  0  0  0
 75 81  1  0  0  0  0
 75164  1  0  0  0  0
 75165  1  0  0  0  0
 76 89  2  0  0  0  0
 77 92  2  0  0  0  0
 78 91  1  0  0  0  0
 78169  1  0  0  0  0
 79 87  1  0  0  0  0
 79 97  1  0  0  0  0
 79170  1  0  0  0  0
 80 86  1  0  0  0  0
 80 98  2  0  0  0  0
 81 96  1  0  0  0  0
 81173  1  0  0  0  0
 81174  1  0  0  0  0
 82 95  1  0  0  0  0
 82175  1  0  0  0  0
 83176  1  0  0  0  0
 84 93  1  0  0  0  0
 84177  1  0  0  0  0
 85 99  1  0  0  0  0
 85178  1  0  0  0  0
 86104  2  0  0  0  0
 87101  1  0  0  0  0
 87179  1  0  0  0  0
 87180  1  0  0  0  0
 88 90  1  0  0  0  0
 88 94  1  0  0  0  0
 88181  1  0  0  0  0
 89100  1  0  0  0  0
 89182  1  0  0  0  0
 91 93  2  0  0  0  0
 91183  1  0  0  0  0
 92102  1  0  0  0  0
 92184  1  0  0  0  0
 93186  1  0  0  0  0
 94103  1  0  0  0  0
 94187  1  0  0  0  0
 94188  1  0  0  0  0
 95100  2  0  0  0  0
 95189  1  0  0  0  0
 96190  1  0  0  0  0
 96191  1  0  0  0  0
 98106  1  0  0  0  0
 98192  1  0  0  0  0
 99102  2  0  0  0  0
 99193  1  0  0  0  0
100194  1  0  0  0  0
101107  1  0  0  0  0
101195  1  0  0  0  0
101196  1  0  0  0  0
102197  1  0  0  0  0
103111  1  0  0  0  0
103112  1  0  0  0  0
103198  1  0  0  0  0
104108  1  0  0  0  0
104199  1  0  0  0  0
105114  1  0  0  0  0
105115  1  0  0  0  0
105202  1  0  0  0  0
106108  2  0  0  0  0
106203  1  0  0  0  0
107204  1  0  0  0  0
107205  1  0  0  0  0
108206  1  0  0  0  0
109110  1  0  0  0  0
109113  1  0  0  0  0
109207  1  0  0  0  0
111209  1  0  0  0  0
111210  1  0  0  0  0
111211  1  0  0  0  0
112212  1  0  0  0  0
112213  1  0  0  0  0
112214  1  0  0  0  0
113117  1  0  0  0  0
113118  1  6  0  0  0
113215  1  0  0  0  0
114116  1  0  0  0  0
114216  1  0  0  0  0
114217  1  0  0  0  0
116121  1  0  0  0  0
116218  1  0  0  0  0
116219  1  0  0  0  0
117122  1  0  0  0  0
117220  1  0  0  0  0
117221  1  0  0  0  0
118223  1  0  0  0  0
118224  1  0  0  0  0
118225  1  0  0  0  0
120123  1  0  0  0  0
120126  1  0  0  0  0
120229  1  0  0  0  0
121230  1  0  0  0  0
121231  1  0  0  0  0
122232  1  0  0  0  0
122233  1  0  0  0  0
122234  1  0  0  0  0
123125  1  0  0  0  0
123235  1  0  0  0  0
123236  1  0  0  0  0
125127  1  0  0  0  0
125237  1  0  0  0  0
125238  1  0  0  0  0
127128  1  0  0  0  0
127243  1  0  0  0  0
127244  1  0  0  0  0
128248  1  0  0  0  0
128249  1  0  0  0  0
M  END
> <PUBCHEM_COMPOUND_CID>
16131445

> <PUBCHEM_COMPOUND_CANONICALIZED>
1

> <PUBCHEM_CACTVS_COMPLEXITY>
3790

> <PUBCHEM_CACTVS_HBOND_ACCEPTOR>
17

> <PUBCHEM_CACTVS_HBOND_DONOR>
25

> <PUBCHEM_CACTVS_ROTATABLE_BOND>
52

> <PUBCHEM_CACTVS_SUBSKEYS>
AAADcfB//AAAAAAAAAAAAAAAAAAAAWLFixYwYMGAAAAAAFgB/gAAHgAQAAAADSjBngQ/wPPJkACoAzV3dACCgCCxAiAJ2aG4ZJiIYPLAmbGUIAhglgLIyAcYicCOgAAAAAACAAAAAAAAAAQAAAAAAAAAAA==

> <PUBCHEM_IUPAC_OPENEYE_NAME>
(2S)-N-[(1S)-2-[[(1S)-2-[(2S)-2-[[(1S)-2-[[(1S)-1-[[(1S)-1-[[(1S)-5-amino-1-carbamoyl-pentyl]carbamoyl]-4-guanidino-butyl]carbamoyl]-4-guanidino-butyl]amino]-1-(1H-indol-3-ylmethyl)-2-oxo-ethyl]carbamoyl]pyrrolidin-1-yl]-1-(1H-indol-3-ylmethyl)-2-oxo-ethyl]amino]-1-(1H-indol-3-ylmethyl)-2-oxo-ethyl]-1-[(2S)-2-[[(2S)-2-[[(2S)-2-[[(2S,3S)-2-amino-3-methyl-pentanoyl]amino]-4-methyl-pentanoyl]amino]-5-guanidino-pentanoyl]amino]-3-(1H-indol-3-yl)propanoyl]pyrrolidine-2-carboxamide

> <PUBCHEM_IUPAC_CAS_NAME>
(2S)-1-[(2S)-2-[[(2S)-2-[[(2S)-2-[[(2S,3S)-2-amino-3-methyl-1-oxopentyl]amino]-4-methyl-1-oxopentyl]amino]-5-carbamimidamido-1-oxopentyl]amino]-3-(1H-indol-3-yl)-1-oxopropyl]-N-[(2S)-1-[[(2S)-1-[(2S)-2-[[[(2S)-1-[[(2S)-5-carbamimidamido-1-[[(2S)-5-carbamimidamido-1-[[(2S)-1,6-diamino-1-oxohexan-2-yl]amino]-1-oxopentan-2-yl]amino]-1-oxopentan-2-yl]amino]-3-(1H-indol-3-yl)-1-oxopropan-2-yl]amino]-oxomethyl]-1-pyrrolidinyl]-3-(1H-indol-3-yl)-1-oxopropan-2-yl]amino]-3-(1H-indol-3-yl)-1-oxopropan-2-yl]-2-pyrrolidinecarboxamide

> <PUBCHEM_IUPAC_NAME_MARKUP>
(2<I>S</I>)-1-[(2<I>S</I>)-2-[[(2<I>S</I>)-2-[[(2<I>S</I>)-2-[[(2<I>S</I>,3<I>S</I>)-2-amino-3-methylpentanoyl]amino]-4-methylpentanoyl]amino]-5-carbamimidamidopentanoyl]amino]-3-(1<I>H</I>-indol-3-yl)propanoyl]-<I>N</I>-[(2<I>S</I>)-1-[[(2<I>S</I>)-1-[(2<I>S</I>)-2-[[(2<I>S</I>)-1-[[(2<I>S</I>)-5-carbamimidamido-1-[[(2<I>S</I>)-5-carbamimidamido-1-[[(2<I>S</I>)-1,6-diamino-1-oxohexan-2-yl]amino]-1-oxopentan-2-yl]amino]-1-oxopentan-2-yl]amino]-3-(1<I>H</I>-indol-3-yl)-1-oxopropan-2-yl]carbamoyl]pyrrolidin-1-yl]-3-(1<I>H</I>-indol-3-yl)-1-oxopropan-2-yl]amino]-3-(1<I>H</I>-indol-3-yl)-1-oxopropan-2-yl]pyrrolidine-2-carboxamide

> <PUBCHEM_IUPAC_NAME>
(2S)-1-[(2S)-2-[[(2S)-2-[[(2S)-2-[[(2S,3S)-2-amino-3-methylpentanoyl]amino]-4-methylpentanoyl]amino]-5-carbamimidamidopentanoyl]amino]-3-(1H-indol-3-yl)propanoyl]-N-[(2S)-1-[[(2S)-1-[(2S)-2-[[(2S)-1-[[(2S)-5-carbamimidamido-1-[[(2S)-5-carbamimidamido-1-[[(2S)-1,6-diamino-1-oxohexan-2-yl]amino]-1-oxopentan-2-yl]amino]-1-oxopentan-2-yl]amino]-3-(1H-indol-3-yl)-1-oxopropan-2-yl]carbamoyl]pyrrolidin-1-yl]-3-(1H-indol-3-yl)-1-oxopropan-2-yl]amino]-3-(1H-indol-3-yl)-1-oxopropan-2-yl]pyrrolidine-2-carboxamide

> <PUBCHEM_IUPAC_SYSTEMATIC_NAME>
(2S)-1-[(2S)-2-[[(2S)-2-[[(2S)-2-[[(2S,3S)-2-azanyl-3-methyl-pentanoyl]amino]-4-methyl-pentanoyl]amino]-5-carbamimidamido-pentanoyl]amino]-3-(1H-indol-3-yl)propanoyl]-N-[(2S)-1-[[(2S)-1-[(2S)-2-[[(2S)-1-[[(2S)-1-[[(2S)-1-[[(2S)-1,6-bis(azanyl)-1-oxidanylidene-hexan-2-yl]amino]-5-carbamimidamido-1-oxidanylidene-pentan-2-yl]amino]-5-carbamimidamido-1-oxidanylidene-pentan-2-yl]amino]-3-(1H-indol-3-yl)-1-oxidanylidene-propan-2-yl]carbamoyl]pyrrolidin-1-yl]-3-(1H-indol-3-yl)-1-oxidanylidene-propan-2-yl]amino]-3-(1H-indol-3-yl)-1-oxidanylidene-propan-2-yl]pyrrolidine-2-carboxamide

> <PUBCHEM_IUPAC_TRADITIONAL_NAME>
(2S)-N-[(1S)-2-[[(1S)-2-[(2S)-2-[[(1S)-2-[[(1S)-1-[[(1S)-1-[[(1S)-5-amino-1-carbamoyl-pentyl]carbamoyl]-4-guanidino-butyl]carbamoyl]-4-guanidino-butyl]amino]-1-(1H-indol-3-ylmethyl)-2-keto-ethyl]carbamoyl]pyrrolidino]-1-(1H-indol-3-ylmethyl)-2-keto-ethyl]amino]-1-(1H-indol-3-ylmethyl)-2-keto-ethyl]-1-[(2S)-2-[[(2S)-2-[[(2S)-2-[[(2S,3S)-2-amino-3-methyl-pentanoyl]amino]-4-methyl-pentanoyl]amino]-5-guanidino-pentanoyl]amino]-3-(1H-indol-3-yl)propanoyl]pyrrolidine-2-carboxamide

> <PUBCHEM_IUPAC_INCHI>
InChI=1S/C90H127N27O12/c1-5-51(4)75(92)85(127)113-68(41-50(2)3)80(122)109-67(32-18-38-102-90(98)99)79(121)114-71(44-54-48-105-62-27-12-8-23-58(54)62)86(128)116-39-19-34-74(116)84(126)112-70(43-53-47-104-61-26-11-7-22-57(53)61)82(124)115-72(45-55-49-106-63-28-13-9-24-59(55)63)87(129)117-40-20-33-73(117)83(125)111-69(42-52-46-103-60-25-10-6-21-56(52)60)81(123)110-66(31-17-37-101-89(96)97)78(120)108-65(30-16-36-100-88(94)95)77(119)107-64(76(93)118)29-14-15-35-91/h6-13,21-28,46-51,64-75,103-106H,5,14-20,29-45,91-92H2,1-4H3,(H2,93,118)(H,107,119)(H,108,120)(H,109,122)(H,110,123)(H,111,125)(H,112,126)(H,113,127)(H,114,121)(H,115,124)(H4,94,95,100)(H4,96,97,101)(H4,98,99,102)/t51-,64-,65-,66-,67-,68-,69-,70-,71-,72-,73-,74-,75-/m0/s1

> <PUBCHEM_IUPAC_INCHIKEY>
MVPAMLBUDIFYGK-BHDRXCTLSA-N

> <PUBCHEM_XLOGP3_AA>
3.3

> <PUBCHEM_EXACT_MASS>
1778.01575260

> <PUBCHEM_MOLECULAR_FORMULA>
C90H127N27O12

> <PUBCHEM_MOLECULAR_WEIGHT>
1779.1

> <PUBCHEM_SMILES>
CC[C@H](C)[C@@H](C(=O)N[C@@H](CC(C)C)C(=O)N[C@@H](CCCNC(=N)N)C(=O)N[C@@H](CC1=CNC2=CC=CC=C21)C(=O)N3CCC[C@H]3C(=O)N[C@@H](CC4=CNC5=CC=CC=C54)C(=O)N[C@@H](CC6=CNC7=CC=CC=C76)C(=O)N8CCC[C@H]8C(=O)N[C@@H](CC9=CNC1=CC=CC=C19)C(=O)N[C@@H](CCCNC(=N)N)C(=O)N[C@@H](CCCNC(=N)N)C(=O)N[C@@H](CCCCN)C(=O)N)N

> <PUBCHEM_CONNECTIVITY_SMILES>
CCC(C)C(C(=O)NC(CC(C)C)C(=O)NC(CCCNC(=N)N)C(=O)NC(CC1=CNC2=CC=CC=C21)C(=O)N3CCCC3C(=O)NC(CC4=CNC5=CC=CC=C54)C(=O)NC(CC6=CNC7=CC=CC=C76)C(=O)N8CCCC8C(=O)NC(CC9=CNC1=CC=CC=C19)C(=O)NC(CCCNC(=N)N)C(=O)NC(CCCNC(=N)N)C(=O)NC(CCCCN)C(=O)N)N

> <PUBCHEM_CACTVS_TPSA>
647

> <PUBCHEM_MONOISOTOPIC_WEIGHT>
1778.01575260

> <PUBCHEM_TOTAL_CHARGE>
0

> <PUBCHEM_HEAVY_ATOM_COUNT>
129

> <PUBCHEM_ATOM_DEF_STEREO_COUNT>
13

> <PUBCHEM_ATOM_UDEF_STEREO_COUNT>
0

> <PUBCHEM_BOND_DEF_STEREO_COUNT>
0

> <PUBCHEM_BOND_UDEF_STEREO_COUNT>
0

> <PUBCHEM_ISOTOPIC_ATOM_COUNT>
0

> <PUBCHEM_COMPONENT_COUNT>
1

> <PUBCHEM_CACTVS_TAUTO_COUNT>
-1

> <PUBCHEM_COORDINATE_TYPE>
1
5
255

> <PUBCHEM_BONDANNOTATIONS>
104  108  8
106  108  8
113  118  6
54  15  5
48  16  5
59  17  6
53  18  6
19  69  8
19  71  8
79  20  5
21  73  8
21  76  8
22  74  8
22  77  8
66  23  5
24  83  8
24  86  8
88  25  6
105  26  6
109  29  5
120  30  5
40  50  6
41  52  6
60  64  8
60  69  8
61  68  8
61  73  8
62  70  8
62  74  8
64  71  8
64  78  8
68  76  8
68  82  8
70  77  8
70  85  8
71  84  8
72  80  8
72  83  8
76  89  8
77  92  8
78  91  8
80  86  8
80  98  8
82  95  8
84  93  8
85  99  8
86  104  8
89  100  8
91  93  8
92  102  8
95  100  8
98  106  8
99  102  8

$$$$
